&time_control
 run_days                            = 0,
 run_hours                           = 0,
 run_minutes = 5,
 run_seconds                         = 0,
 start_year                          = 2021,
 start_month                         = 12,
 start_day                           = 30,
 start_hour                          = 17,
 end_year                            = 2021,
 end_month                           = 12,
 end_day                             = 30,
 end_hour                            = 18,
 end_minute                          = 00,
 interval_seconds                    = 3600,
 input_from_file                     = .true.,
 history_interval = 1,
 frames_per_outfile                  = 1,
 restart                             = .false.,
 restart_interval                    = 9999,
 io_form_history                     = 2,
 io_form_restart                     = 2,
 io_form_input                       = 2,
 io_form_boundary                    = 2,
/

&domains
 time_step                           = 1,
 time_step_fract_num                 = 1,
 time_step_fract_den                 = 2,
 max_dom                             = 1,
 e_we                                = 401,
 e_sn                                = 401,
 e_vert                              = 50,
 dzstretch_s                         = 1.1,
 p_top_requested                     = 5000,
 num_metgrid_levels                  = 51,
 num_metgrid_soil_levels             = 8,
 dx                                  = 250,
 dy                                  = 250,
 grid_id                             = 1,
 parent_id                           = 0,
 i_parent_start                      = 1,
 j_parent_start                      = 1,
 parent_grid_ratio                   = 1,
 parent_time_step_ratio              = 1,
 feedback                            = 1,
 smooth_option                       = 0,
 hypsometric_opt                     = 2,
/

&physics
 mp_physics                          = 6,
 ra_lw_physics                       = 0,
 ra_sw_physics                       = 0,
 radt                                = 0,
 sf_sfclay_physics                   = 1,
 sf_surface_physics                  = 1,
 bl_pbl_physics                      = 1,
 bldt                                = 0,
 cu_physics                          = 0,
 cudt                                = 0,
 num_soil_layers                     = 5,
 num_land_cat                        = 21,
/

&fdda
/

&dynamics
 hybrid_opt                          = 2,
 w_damping                           = 1,
 diff_opt                            = 1,
 km_opt                              = 4,
 diff_6th_opt                        = 0,
 diff_6th_factor                     = 0.12,
 base_temp                           = 290.,
 damp_opt                            = 3,
 zdamp                               = 5000.,
 dampcoef                            = 0.2,
 khdif                               = 0,
 kvdif                               = 0,
 non_hydrostatic                     = .true.,
 moist_adv_opt                       = 1,
 scalar_adv_opt                      = 1,
 gwd_opt                             = 0,
/

&bdy_control
 spec_bdy_width                      = 5,
 specified                           = .true.,
/

&namelist_quilt
 nio_tasks_per_group                 = 0,
 nio_groups                          = 1,
/
